<connections>

  <!-- <connection from="1fc0" to="c1fc0" fromLane="0" toLane="0" /> -->

</connections>