<?xml version='1.0' encoding='UTF-8'?>
<additional>
  <laneData file="../data/lanemeandata-output.xml" id="lanedata" />
  <poly angle="0.0" color="0,0,255" id="zone_1" layer="999.0" lineWidth="1" shape="0.0,5.0 0.0,-10.0" type="zone" />
  <poly angle="0.0" color="0,0,255" id="zone_2" layer="999.0" lineWidth="1" shape="1000.0,5.0 1000.0,-10.0" type="zone" />
  <poly angle="0.0" color="0,0,255" id="zone_3" layer="999.0" lineWidth="1" shape="2000.0,5.0 2000.0,-10.0" type="zone" />
  <poly angle="0.0" color="0,0,255" id="zone_4" layer="999.0" lineWidth="1" shape="3000.0,5.0 3000.0,-10.0" type="zone" />
  <poly angle="0.0" color="0,0,255" id="zone_5" layer="999.0" lineWidth="1" shape="4000.0,5.0 4000.0,-10.0" type="zone" />
</additional>
