<?xml version="1.0" encoding="UTF-8"?>

<!-- generated on 2022-09-19 07:09:55 by Eclipse SUMO netconvert Version 553ca74fd
<configuration xmlns:xsi="http://www.w3.org/2001/XMLSchema-instance" xsi:noNamespaceSchemaLocation="http://sumo.dlr.de/xsd/netconvertConfiguration.xsd">

    <input>
        <node-files value="nodes.xml"/>
        <edge-files value="edges.xml"/>
        <connection-files value="connections.con.xml"/>
    </input>

    <output>
        <output-file value="network.net.xml"/>
    </output>

</configuration>
-->

<net version="1.9" junctionCornerDetail="5" limitTurnSpeed="5.50" xmlns:xsi="http://www.w3.org/2001/XMLSchema-instance" xsi:noNamespaceSchemaLocation="http://sumo.dlr.de/xsd/net_file.xsd">

    <location netOffset="0.00,0.00" convBoundary="0.00,0.00,5000.00,0.00" origBoundary="0.00,0.00,5000.00,0.00" projParameter="!"/>

    <edge id="1f2" from="1" to="2" priority="-1">
        <lane id="1f2_0" index="0" speed="13.89" length="5000.00" shape="0.00,-8.00 5000.00,-8.00"/>
        <lane id="1f2_1" index="1" speed="13.89" length="5000.00" shape="0.00,-4.80 5000.00,-4.80"/>
        <lane id="1f2_2" index="2" speed="13.89" length="5000.00" shape="0.00,-1.60 5000.00,-1.60"/>
    </edge>

    <junction id="1" type="dead_end" x="0.00" y="0.00" incLanes="" intLanes="" shape="0.00,0.00 0.00,-9.60"/>
    <junction id="2" type="dead_end" x="5000.00" y="0.00" incLanes="1f2_0 1f2_1 1f2_2" intLanes="" shape="5000.00,-9.60 5000.00,0.00"/>

</net>
